* Extracted by KLayout with SG13G2 LVS runset on : 11/11/2024 01:28

.SUBCKT tt_um_chip_rom VGND VPWR ui_in[4] ui_in[0] ui_in[3] ui_in[2] ui_in[1]
+ ui_in[5] ui_in[6] ui_in[7] uo_out[2] uo_out[4] uo_out[0] uo_out[7] uo_out[6]
+ uo_out[3] uio_oe[7] uio_oe[6] uio_oe[5] uio_oe[4] uio_oe[3] uio_oe[2]
+ uio_oe[1] uio_oe[0] uio_out[7] uio_out[6] uio_out[5] uio_out[4] uio_out[3]
+ uio_out[2] uio_out[1] uio_out[0] uo_out[5] uo_out[1]
X$7 VGND VPWR sg13g2_decap_8
X$8 VGND VPWR sg13g2_decap_8
X$9 VGND VPWR sg13g2_decap_8
X$10 VGND VPWR sg13g2_decap_8
X$11 VGND VPWR sg13g2_decap_8
X$12 VGND VPWR sg13g2_decap_8
X$14 VGND VPWR sg13g2_decap_8
X$15 VGND VPWR sg13g2_decap_8
X$16 VGND VPWR sg13g2_decap_8
X$17 VGND VPWR sg13g2_decap_8
X$18 VGND VPWR sg13g2_decap_8
X$19 VGND VPWR sg13g2_decap_8
X$20 VGND VPWR sg13g2_decap_8
X$21 VGND VPWR sg13g2_decap_8
X$22 VGND VPWR sg13g2_decap_8
X$23 VGND VPWR sg13g2_decap_8
X$24 VGND VPWR sg13g2_decap_8
X$25 VGND VPWR sg13g2_decap_8
X$26 VGND VPWR sg13g2_decap_8
X$27 VGND VPWR sg13g2_decap_8
X$28 VGND VPWR sg13g2_decap_8
X$29 VGND VPWR sg13g2_decap_8
X$30 VGND VPWR sg13g2_decap_8
X$31 VGND VPWR sg13g2_decap_8
X$32 VGND VPWR sg13g2_decap_8
X$33 VGND VPWR sg13g2_decap_8
X$34 VGND VPWR sg13g2_decap_8
X$35 VGND VPWR sg13g2_decap_8
X$36 VGND VPWR sg13g2_decap_8
X$38 VGND VPWR sg13g2_decap_8
X$39 VGND VPWR sg13g2_decap_8
X$40 VGND VPWR sg13g2_decap_8
X$41 VGND VPWR sg13g2_decap_8
X$42 VGND VPWR sg13g2_decap_8
X$43 VGND VPWR sg13g2_decap_8
X$44 VGND VPWR sg13g2_decap_8
X$45 VGND VPWR sg13g2_decap_8
X$46 VGND VPWR sg13g2_decap_8
X$47 VGND VPWR sg13g2_decap_8
X$48 VGND VPWR sg13g2_decap_8
X$49 VGND VPWR sg13g2_decap_8
X$50 VGND VPWR sg13g2_decap_8
X$51 VGND VPWR sg13g2_decap_8
X$52 VGND VPWR sg13g2_decap_8
X$53 VGND VPWR sg13g2_decap_8
X$54 VGND VPWR sg13g2_decap_8
X$55 VGND VPWR sg13g2_decap_8
X$56 VGND VPWR sg13g2_decap_8
X$57 VGND VPWR sg13g2_decap_8
X$58 VGND VPWR sg13g2_decap_8
X$59 VGND VPWR sg13g2_decap_8
X$61 VGND VPWR sg13g2_decap_8
X$62 VGND VPWR sg13g2_decap_8
X$63 VGND VPWR sg13g2_decap_8
X$64 VGND VPWR sg13g2_decap_8
X$65 VGND VPWR sg13g2_decap_8
X$66 VGND VPWR sg13g2_decap_8
X$67 VGND VPWR sg13g2_decap_8
X$68 VGND VPWR sg13g2_decap_8
X$69 VGND VPWR sg13g2_decap_8
X$70 VGND VPWR sg13g2_decap_8
X$73 VGND VPWR sg13g2_decap_8
X$74 VGND VPWR sg13g2_decap_8
X$75 VGND VPWR sg13g2_decap_8
X$76 VGND VPWR sg13g2_decap_8
X$77 VGND VPWR sg13g2_decap_8
X$78 VGND VPWR sg13g2_decap_8
X$82 VGND VPWR sg13g2_decap_8
X$83 VGND VPWR sg13g2_decap_8
X$84 VGND VPWR sg13g2_decap_8
X$85 VGND VPWR sg13g2_decap_8
X$86 VGND VPWR sg13g2_decap_8
X$87 VGND VPWR sg13g2_decap_8
X$88 VGND VPWR sg13g2_decap_8
X$89 VGND VPWR sg13g2_decap_8
X$90 VGND VPWR sg13g2_decap_8
X$91 VGND VPWR sg13g2_decap_8
X$92 VGND VPWR sg13g2_decap_8
X$93 VGND VPWR sg13g2_decap_8
X$94 VGND VPWR sg13g2_decap_8
X$95 VGND VPWR sg13g2_decap_8
X$96 VGND VPWR sg13g2_decap_8
X$97 VGND VPWR sg13g2_decap_8
X$98 VGND VPWR sg13g2_decap_8
X$99 VGND VPWR sg13g2_decap_8
X$100 VGND VPWR sg13g2_decap_8
X$101 VGND VPWR sg13g2_decap_8
X$102 VGND VPWR sg13g2_decap_8
X$103 VGND VPWR sg13g2_decap_8
X$104 VGND VPWR sg13g2_decap_8
X$108 VGND VPWR sg13g2_decap_8
X$109 VGND VPWR sg13g2_decap_8
X$110 VGND VPWR sg13g2_decap_8
X$111 VGND VPWR sg13g2_decap_8
X$112 VGND VPWR sg13g2_decap_8
X$113 VGND VPWR sg13g2_decap_8
X$114 VGND VPWR sg13g2_decap_8
X$115 VGND VPWR sg13g2_decap_8
X$116 VGND VPWR sg13g2_decap_8
X$117 VGND VPWR sg13g2_decap_8
X$118 VGND VPWR sg13g2_decap_8
X$119 VGND VPWR sg13g2_decap_8
X$120 VGND VPWR sg13g2_decap_8
X$121 VGND VPWR sg13g2_decap_8
X$122 VGND VPWR sg13g2_decap_8
X$123 VGND VPWR sg13g2_decap_8
X$124 VGND VPWR sg13g2_decap_8
X$125 VGND VPWR sg13g2_decap_8
X$126 VGND VPWR sg13g2_decap_8
X$127 VGND VPWR sg13g2_decap_8
X$128 VGND VPWR sg13g2_decap_8
X$129 VGND VPWR sg13g2_decap_8
X$133 VGND VPWR sg13g2_decap_8
X$134 VGND VPWR sg13g2_decap_8
X$135 VGND VPWR sg13g2_decap_8
X$136 VGND VPWR sg13g2_decap_8
X$137 VGND VPWR sg13g2_decap_8
X$138 VGND VPWR sg13g2_decap_8
X$139 VGND VPWR sg13g2_decap_8
X$140 VGND VPWR sg13g2_decap_8
X$141 VGND VPWR sg13g2_decap_8
X$142 VGND VPWR sg13g2_decap_8
X$145 VGND VPWR sg13g2_decap_8
X$146 VGND VPWR sg13g2_decap_8
X$147 VGND VPWR sg13g2_decap_8
X$148 VGND VPWR sg13g2_decap_8
X$149 VGND VPWR sg13g2_decap_8
X$150 VGND VPWR sg13g2_decap_8
X$151 VGND VPWR sg13g2_decap_8
X$152 VGND VPWR sg13g2_decap_8
X$157 VGND VPWR sg13g2_decap_8
X$158 VGND VPWR sg13g2_decap_8
X$159 VGND VPWR sg13g2_decap_8
X$160 VGND VPWR sg13g2_decap_8
X$165 VGND VPWR sg13g2_decap_8
X$166 VGND VPWR sg13g2_decap_8
X$167 VGND VPWR sg13g2_decap_8
X$168 VGND VPWR sg13g2_decap_8
X$169 VGND VPWR sg13g2_decap_8
X$170 VGND VPWR sg13g2_decap_8
X$171 VGND VPWR sg13g2_decap_8
X$172 VGND VPWR sg13g2_decap_8
X$173 VGND VPWR sg13g2_decap_8
X$174 VGND VPWR sg13g2_decap_8
X$175 VGND VPWR sg13g2_decap_8
X$176 VGND VPWR sg13g2_decap_8
X$177 VGND VPWR sg13g2_decap_8
X$178 VGND VPWR sg13g2_decap_8
X$179 VGND VPWR sg13g2_decap_8
X$180 VGND VPWR sg13g2_decap_8
X$181 VGND VPWR sg13g2_decap_8
X$182 VGND VPWR sg13g2_decap_8
X$183 VGND VPWR sg13g2_decap_8
X$184 VGND VPWR sg13g2_decap_8
X$185 VGND VPWR sg13g2_decap_8
X$186 VGND VPWR sg13g2_decap_8
X$187 VGND VPWR sg13g2_decap_8
X$188 VGND VPWR sg13g2_decap_8
X$189 VGND VPWR sg13g2_decap_8
X$190 VGND VPWR sg13g2_decap_8
X$191 VGND VPWR sg13g2_decap_8
X$192 VGND VPWR sg13g2_decap_8
X$193 VGND VPWR sg13g2_decap_8
X$194 VGND VPWR sg13g2_decap_8
X$195 VGND VPWR sg13g2_decap_8
X$196 VGND VPWR sg13g2_decap_8
X$197 VGND VPWR sg13g2_decap_8
X$198 VGND VPWR sg13g2_decap_8
X$199 VGND VPWR sg13g2_decap_8
X$200 VGND VPWR sg13g2_decap_8
X$201 VGND VPWR sg13g2_decap_8
X$202 VGND VPWR sg13g2_decap_8
X$203 VGND VPWR sg13g2_decap_8
X$204 VGND VPWR sg13g2_decap_8
X$205 VGND VPWR sg13g2_decap_8
X$206 VGND VPWR sg13g2_decap_8
X$211 VGND VPWR sg13g2_decap_8
X$212 VGND VPWR sg13g2_decap_8
X$213 VGND VPWR sg13g2_decap_8
X$214 VGND VPWR sg13g2_decap_8
X$219 VGND VPWR sg13g2_decap_8
X$220 VGND VPWR sg13g2_decap_8
X$221 VGND VPWR sg13g2_decap_8
X$222 VGND VPWR sg13g2_decap_8
X$223 VGND VPWR sg13g2_decap_8
X$224 VGND VPWR sg13g2_decap_8
X$225 VGND VPWR sg13g2_decap_8
X$226 VGND VPWR sg13g2_decap_8
X$227 VGND VPWR sg13g2_decap_8
X$228 VGND VPWR sg13g2_decap_8
X$229 VGND VPWR sg13g2_decap_8
X$230 VGND VPWR sg13g2_decap_8
X$231 VGND VPWR sg13g2_decap_8
X$232 VGND VPWR sg13g2_decap_8
X$233 VGND VPWR sg13g2_decap_8
X$234 VGND VPWR sg13g2_decap_8
X$235 VGND VPWR sg13g2_decap_8
X$236 VGND VPWR sg13g2_decap_8
X$237 VGND VPWR sg13g2_decap_8
X$238 VGND VPWR sg13g2_decap_8
X$239 VGND VPWR sg13g2_decap_8
X$240 VGND VPWR sg13g2_decap_8
X$241 VGND VPWR sg13g2_decap_8
X$242 VGND VPWR sg13g2_decap_8
X$243 VGND VPWR sg13g2_decap_8
X$244 VGND VPWR sg13g2_decap_8
X$245 VGND VPWR sg13g2_decap_8
X$246 VGND VPWR sg13g2_decap_8
X$247 VGND VPWR sg13g2_decap_8
X$248 VGND VPWR sg13g2_decap_8
X$249 VGND VPWR sg13g2_decap_8
X$250 VGND VPWR sg13g2_decap_8
X$251 VGND VPWR sg13g2_decap_8
X$252 VGND VPWR sg13g2_decap_8
X$253 VGND VPWR sg13g2_decap_8
X$254 VGND VPWR sg13g2_decap_8
X$255 VGND VPWR sg13g2_decap_8
X$256 VGND VPWR sg13g2_decap_8
X$257 VGND VPWR sg13g2_decap_8
X$258 VGND VPWR sg13g2_decap_8
X$263 VGND VPWR sg13g2_decap_8
X$264 VGND VPWR sg13g2_decap_8
X$265 VGND VPWR sg13g2_decap_8
X$266 VGND VPWR sg13g2_decap_8
X$271 VGND VPWR sg13g2_decap_8
X$272 VGND VPWR sg13g2_decap_8
X$273 VGND VPWR sg13g2_decap_8
X$274 VGND VPWR sg13g2_decap_8
X$275 VGND VPWR sg13g2_decap_8
X$276 VGND VPWR sg13g2_decap_8
X$277 VGND VPWR sg13g2_decap_8
X$278 VGND VPWR sg13g2_decap_8
X$279 VGND VPWR sg13g2_decap_8
X$280 VGND VPWR sg13g2_decap_8
X$281 VGND VPWR sg13g2_decap_8
X$282 VGND VPWR sg13g2_decap_8
X$283 VGND VPWR sg13g2_decap_8
X$284 VGND VPWR sg13g2_decap_8
X$285 VGND VPWR sg13g2_decap_8
X$286 VGND VPWR sg13g2_decap_8
X$287 VGND VPWR sg13g2_decap_8
X$288 VGND VPWR sg13g2_decap_8
X$289 VGND VPWR sg13g2_decap_8
X$290 VGND VPWR sg13g2_decap_8
X$295 VGND VPWR sg13g2_decap_8
X$296 VGND VPWR sg13g2_decap_8
X$297 VGND VPWR sg13g2_decap_8
X$298 VGND VPWR sg13g2_decap_8
X$299 VGND VPWR sg13g2_decap_8
X$300 VGND VPWR sg13g2_decap_8
X$301 VGND VPWR sg13g2_decap_8
X$302 VGND VPWR sg13g2_decap_8
X$307 VGND VPWR sg13g2_decap_8
X$308 VGND VPWR sg13g2_decap_8
X$309 VGND VPWR sg13g2_decap_8
X$310 VGND VPWR sg13g2_decap_8
X$315 VGND VPWR sg13g2_decap_8
X$316 VGND VPWR sg13g2_decap_8
X$317 VGND VPWR sg13g2_decap_8
X$318 VGND VPWR sg13g2_decap_8
X$319 VGND VPWR sg13g2_decap_8
X$320 VGND VPWR sg13g2_decap_8
X$321 VGND VPWR sg13g2_decap_8
X$322 VGND VPWR sg13g2_decap_8
X$323 VGND VPWR sg13g2_decap_8
X$324 VGND VPWR sg13g2_decap_8
X$325 VGND VPWR sg13g2_decap_8
X$326 VGND VPWR sg13g2_decap_8
X$327 VGND VPWR sg13g2_decap_8
X$328 VGND VPWR sg13g2_decap_8
X$329 VGND VPWR sg13g2_decap_8
X$330 VGND VPWR sg13g2_decap_8
X$331 VGND VPWR sg13g2_decap_8
X$332 VGND VPWR sg13g2_decap_8
X$333 VGND VPWR sg13g2_decap_8
X$334 VGND VPWR sg13g2_decap_8
X$335 VGND VPWR sg13g2_decap_8
X$336 VGND VPWR sg13g2_decap_8
X$337 VGND VPWR sg13g2_decap_8
X$338 VGND VPWR sg13g2_decap_8
X$339 VGND VPWR sg13g2_decap_8
X$340 VGND VPWR sg13g2_decap_8
X$341 VGND VPWR sg13g2_decap_8
X$342 VGND VPWR sg13g2_decap_8
X$343 VGND VPWR sg13g2_decap_8
X$344 VGND VPWR sg13g2_decap_8
X$345 VGND VPWR sg13g2_decap_8
X$346 VGND VPWR sg13g2_decap_8
X$347 VGND VPWR sg13g2_decap_8
X$348 VGND VPWR sg13g2_decap_8
X$349 VGND VPWR sg13g2_decap_8
X$350 VGND VPWR sg13g2_decap_8
X$351 VGND VPWR sg13g2_decap_8
X$352 VGND VPWR sg13g2_decap_8
X$353 VGND VPWR sg13g2_decap_8
X$354 VGND VPWR sg13g2_decap_8
X$355 VGND VPWR sg13g2_decap_8
X$356 VGND VPWR sg13g2_decap_8
X$361 VGND VPWR sg13g2_decap_8
X$362 VGND VPWR sg13g2_decap_8
X$363 VGND VPWR sg13g2_decap_8
X$364 VGND VPWR sg13g2_decap_8
X$369 VGND VPWR sg13g2_decap_8
X$370 VGND VPWR sg13g2_decap_8
X$371 VGND VPWR sg13g2_decap_8
X$372 VGND VPWR sg13g2_decap_8
X$373 VGND VPWR sg13g2_decap_8
X$374 VGND VPWR sg13g2_decap_8
X$375 VGND VPWR sg13g2_decap_8
X$376 VGND VPWR sg13g2_decap_8
X$377 VGND VPWR sg13g2_decap_8
X$378 VGND VPWR sg13g2_decap_8
X$379 VGND VPWR sg13g2_decap_8
X$380 VGND VPWR sg13g2_decap_8
X$381 VGND VPWR sg13g2_decap_8
X$382 VGND VPWR sg13g2_decap_8
X$383 VGND VPWR sg13g2_decap_8
X$384 VGND VPWR sg13g2_decap_8
X$385 VGND VPWR sg13g2_decap_8
X$386 VGND VPWR sg13g2_decap_8
X$387 VGND VPWR sg13g2_decap_8
X$388 VGND VPWR sg13g2_decap_8
X$389 VGND VPWR sg13g2_decap_8
X$390 VGND VPWR sg13g2_decap_8
X$391 VGND VPWR sg13g2_decap_8
X$392 VGND VPWR sg13g2_decap_8
X$393 VGND VPWR sg13g2_decap_8
X$394 VGND VPWR sg13g2_decap_8
X$395 VGND VPWR sg13g2_decap_8
X$396 VGND VPWR sg13g2_decap_8
X$397 VGND VPWR sg13g2_decap_8
X$398 VGND VPWR sg13g2_decap_8
X$399 VGND VPWR sg13g2_decap_8
X$400 VGND VPWR sg13g2_decap_8
X$401 VGND VPWR sg13g2_decap_8
X$402 VGND VPWR sg13g2_decap_8
X$403 VGND VPWR sg13g2_decap_8
X$404 VGND VPWR sg13g2_decap_8
X$405 VGND VPWR sg13g2_decap_8
X$406 VGND VPWR sg13g2_decap_8
X$407 VGND VPWR sg13g2_decap_8
X$408 VGND VPWR sg13g2_decap_8
X$413 VGND VPWR sg13g2_decap_8
X$414 VGND VPWR sg13g2_decap_8
X$415 VGND VPWR sg13g2_decap_8
X$416 VGND VPWR sg13g2_decap_8
X$421 VGND VPWR sg13g2_decap_8
X$422 VGND VPWR sg13g2_decap_8
X$423 VGND VPWR sg13g2_decap_8
X$424 VGND VPWR sg13g2_decap_8
X$425 VGND VPWR sg13g2_decap_8
X$426 VGND VPWR sg13g2_decap_8
X$427 VGND VPWR sg13g2_decap_8
X$428 VGND VPWR sg13g2_decap_8
X$429 VGND VPWR sg13g2_decap_8
X$430 VGND VPWR sg13g2_decap_8
X$431 VGND VPWR sg13g2_decap_8
X$432 VGND VPWR sg13g2_decap_8
X$433 VGND VPWR sg13g2_decap_8
X$434 VGND VPWR sg13g2_decap_8
X$435 VGND VPWR sg13g2_decap_8
X$436 VGND VPWR sg13g2_decap_8
X$437 VGND VPWR sg13g2_decap_8
X$438 VGND VPWR sg13g2_decap_8
X$439 VGND VPWR sg13g2_decap_8
X$440 VGND VPWR sg13g2_decap_8
X$445 VGND VPWR sg13g2_decap_8
X$446 VGND VPWR sg13g2_decap_8
X$447 VGND VPWR sg13g2_decap_8
X$448 VGND VPWR sg13g2_decap_8
X$449 VGND VPWR sg13g2_decap_8
X$450 VGND VPWR sg13g2_decap_8
X$451 VGND VPWR sg13g2_decap_8
X$452 VGND VPWR sg13g2_decap_8
X$457 VGND VPWR sg13g2_decap_8
X$458 VGND VPWR sg13g2_decap_8
X$459 VGND VPWR sg13g2_decap_8
X$460 VGND VPWR sg13g2_decap_8
X$465 VGND VPWR sg13g2_decap_8
X$466 VGND VPWR sg13g2_decap_8
X$467 VGND VPWR sg13g2_decap_8
X$468 VGND VPWR sg13g2_decap_8
X$469 VGND VPWR sg13g2_decap_8
X$470 VGND VPWR sg13g2_decap_8
X$471 VGND VPWR sg13g2_decap_8
X$472 VGND VPWR sg13g2_decap_8
X$473 VGND VPWR sg13g2_decap_8
X$474 VGND VPWR sg13g2_decap_8
X$475 VGND VPWR sg13g2_decap_8
X$476 VGND VPWR sg13g2_decap_8
X$477 VGND VPWR sg13g2_decap_8
X$478 VGND VPWR sg13g2_decap_8
X$479 VGND VPWR sg13g2_decap_8
X$480 VGND VPWR sg13g2_decap_8
X$481 VGND VPWR sg13g2_decap_8
X$482 VGND VPWR sg13g2_decap_8
X$483 VGND VPWR sg13g2_decap_8
X$484 VGND VPWR sg13g2_decap_8
X$485 VGND VPWR sg13g2_decap_8
X$486 VGND VPWR sg13g2_decap_8
X$487 VGND VPWR sg13g2_decap_8
X$488 VGND VPWR sg13g2_decap_8
X$489 VGND VPWR sg13g2_decap_8
X$490 VGND VPWR sg13g2_decap_8
X$491 VGND VPWR sg13g2_decap_8
X$492 VGND VPWR sg13g2_decap_8
X$493 VGND VPWR sg13g2_decap_8
X$494 VGND VPWR sg13g2_decap_8
X$495 VGND VPWR sg13g2_decap_8
X$496 VGND VPWR sg13g2_decap_8
X$497 VGND VPWR sg13g2_decap_8
X$498 VGND VPWR sg13g2_decap_8
X$499 VGND VPWR sg13g2_decap_8
X$500 VGND VPWR sg13g2_decap_8
X$501 VGND VPWR sg13g2_decap_8
X$502 VGND VPWR sg13g2_decap_8
X$503 VGND VPWR sg13g2_decap_8
X$504 VGND VPWR sg13g2_decap_8
X$505 VGND VPWR sg13g2_decap_8
X$506 VGND VPWR sg13g2_decap_8
X$511 VGND VPWR sg13g2_decap_8
X$512 VGND VPWR sg13g2_decap_8
X$513 VGND VPWR sg13g2_decap_8
X$514 VGND VPWR sg13g2_decap_8
X$519 VGND VPWR sg13g2_decap_8
X$520 VGND VPWR sg13g2_decap_8
X$521 VGND VPWR sg13g2_decap_8
X$522 VGND VPWR sg13g2_decap_8
X$523 VGND VPWR sg13g2_decap_8
X$524 VGND VPWR sg13g2_decap_8
X$525 VGND VPWR sg13g2_decap_8
X$526 VGND VPWR sg13g2_decap_8
X$527 VGND VPWR sg13g2_decap_8
X$528 VGND VPWR sg13g2_decap_8
X$529 VGND VPWR sg13g2_decap_8
X$530 VGND VPWR sg13g2_decap_8
X$531 VGND VPWR sg13g2_decap_8
X$532 VGND VPWR sg13g2_decap_8
X$533 VGND VPWR sg13g2_decap_8
X$534 VGND VPWR sg13g2_decap_8
X$535 VGND VPWR sg13g2_decap_8
X$536 VGND VPWR sg13g2_decap_8
X$537 VGND VPWR sg13g2_decap_8
X$538 VGND VPWR sg13g2_decap_8
X$539 VGND VPWR sg13g2_decap_8
X$540 VGND VPWR sg13g2_decap_8
X$541 VGND VPWR sg13g2_decap_8
X$542 VGND VPWR sg13g2_decap_8
X$543 VGND VPWR sg13g2_decap_8
X$544 VGND VPWR sg13g2_decap_8
X$545 VGND VPWR sg13g2_decap_8
X$546 VGND VPWR sg13g2_decap_8
X$547 VGND VPWR sg13g2_decap_8
X$548 VGND VPWR sg13g2_decap_8
X$549 VGND VPWR sg13g2_decap_8
X$550 VGND VPWR sg13g2_decap_8
X$551 VGND VPWR sg13g2_decap_8
X$552 VGND VPWR sg13g2_decap_8
X$553 VGND VPWR sg13g2_decap_8
X$554 VGND VPWR sg13g2_decap_8
X$555 VGND VPWR sg13g2_decap_8
X$556 VGND VPWR sg13g2_decap_8
X$557 VGND VPWR sg13g2_decap_8
X$558 VGND VPWR sg13g2_decap_8
X$563 VGND VPWR sg13g2_decap_8
X$564 VGND VPWR sg13g2_decap_8
X$565 VGND VPWR sg13g2_decap_8
X$566 VGND VPWR sg13g2_decap_8
X$571 VGND VPWR sg13g2_decap_8
X$572 VGND VPWR sg13g2_decap_8
X$573 VGND VPWR sg13g2_decap_8
X$574 VGND VPWR sg13g2_decap_8
X$575 VGND VPWR sg13g2_decap_8
X$576 VGND VPWR sg13g2_decap_8
X$577 VGND VPWR sg13g2_decap_8
X$578 VGND VPWR sg13g2_decap_8
X$579 VGND VPWR sg13g2_decap_8
X$580 VGND VPWR sg13g2_decap_8
X$581 VGND VPWR sg13g2_decap_8
X$582 VGND VPWR sg13g2_decap_8
X$583 VGND VPWR sg13g2_decap_8
X$584 VGND VPWR sg13g2_decap_8
X$585 VGND VPWR sg13g2_decap_8
X$586 VGND VPWR sg13g2_decap_8
X$587 VGND VPWR sg13g2_decap_8
X$588 VGND VPWR sg13g2_decap_8
X$589 VGND VPWR sg13g2_decap_8
X$590 VGND VPWR sg13g2_decap_8
X$595 VGND VPWR sg13g2_decap_8
X$596 VGND VPWR sg13g2_decap_8
X$597 VGND VPWR sg13g2_decap_8
X$598 VGND VPWR sg13g2_decap_8
X$599 VGND VPWR sg13g2_decap_8
X$600 VGND VPWR sg13g2_decap_8
X$601 VGND VPWR sg13g2_decap_8
X$602 VGND VPWR sg13g2_decap_8
X$607 VGND VPWR sg13g2_decap_8
X$608 VGND VPWR sg13g2_decap_8
X$609 VGND VPWR sg13g2_decap_8
X$610 VGND VPWR sg13g2_decap_8
X$615 VGND VPWR sg13g2_decap_8
X$616 VGND VPWR sg13g2_decap_8
X$617 VGND VPWR sg13g2_decap_8
X$618 VGND VPWR sg13g2_decap_8
X$619 VGND VPWR sg13g2_decap_8
X$620 VGND VPWR sg13g2_decap_8
X$621 VGND VPWR sg13g2_decap_8
X$622 VGND VPWR sg13g2_decap_8
X$623 VGND VPWR sg13g2_decap_8
X$624 VGND VPWR sg13g2_decap_8
X$625 VGND VPWR sg13g2_decap_8
X$626 VGND VPWR sg13g2_decap_8
X$627 VGND VPWR sg13g2_decap_8
X$628 VGND VPWR sg13g2_decap_8
X$629 VGND VPWR sg13g2_decap_8
X$630 VGND VPWR sg13g2_decap_8
X$631 VGND VPWR sg13g2_decap_8
X$632 VGND VPWR sg13g2_decap_8
X$633 VGND VPWR sg13g2_decap_8
X$634 VGND VPWR sg13g2_decap_8
X$635 VGND VPWR sg13g2_decap_8
X$636 VGND VPWR sg13g2_decap_8
X$637 VGND VPWR sg13g2_decap_8
X$638 VGND VPWR sg13g2_decap_8
X$639 VGND VPWR sg13g2_decap_8
X$640 VGND VPWR sg13g2_decap_8
X$641 VGND VPWR sg13g2_decap_8
X$642 VGND VPWR sg13g2_decap_8
X$643 VGND VPWR sg13g2_decap_8
X$644 VGND VPWR sg13g2_decap_8
X$645 VGND VPWR sg13g2_decap_8
X$646 VGND VPWR sg13g2_decap_8
X$647 VGND VPWR sg13g2_decap_8
X$648 VGND VPWR sg13g2_decap_8
X$649 VGND VPWR sg13g2_decap_8
X$650 VGND VPWR sg13g2_decap_8
X$651 VGND VPWR sg13g2_decap_8
X$652 VGND VPWR sg13g2_decap_8
X$653 VGND VPWR sg13g2_decap_8
X$654 VGND VPWR sg13g2_decap_8
X$655 VGND VPWR sg13g2_decap_8
X$656 VGND VPWR sg13g2_decap_8
X$661 VGND VPWR sg13g2_decap_8
X$662 VGND VPWR sg13g2_decap_8
X$663 VGND VPWR sg13g2_decap_8
X$664 VGND VPWR sg13g2_decap_8
X$669 VGND VPWR sg13g2_decap_8
X$670 VGND VPWR sg13g2_decap_8
X$671 VGND VPWR sg13g2_decap_8
X$672 VGND VPWR sg13g2_decap_8
X$673 VGND VPWR sg13g2_decap_8
X$674 VGND VPWR sg13g2_decap_8
X$675 VGND VPWR sg13g2_decap_8
X$676 VGND VPWR sg13g2_decap_8
X$677 VGND VPWR sg13g2_decap_8
X$678 VGND VPWR sg13g2_decap_8
X$679 VGND VPWR sg13g2_decap_8
X$680 VGND VPWR sg13g2_decap_8
X$681 VGND VPWR sg13g2_decap_8
X$682 VGND VPWR sg13g2_decap_8
X$683 VGND VPWR sg13g2_decap_8
X$684 VGND VPWR sg13g2_decap_8
X$685 VGND VPWR sg13g2_decap_8
X$686 VGND VPWR sg13g2_decap_8
X$687 VGND VPWR sg13g2_decap_8
X$688 VGND VPWR sg13g2_decap_8
X$689 VGND VPWR sg13g2_decap_8
X$690 VGND VPWR sg13g2_decap_8
X$691 VGND VPWR sg13g2_decap_8
X$692 VGND VPWR sg13g2_decap_8
X$693 VGND VPWR sg13g2_decap_8
X$694 VGND VPWR sg13g2_decap_8
X$695 VGND VPWR sg13g2_decap_8
X$696 VGND VPWR sg13g2_decap_8
X$697 VGND VPWR sg13g2_decap_8
X$698 VGND VPWR sg13g2_decap_8
X$699 VGND VPWR sg13g2_decap_8
X$700 VGND VPWR sg13g2_decap_8
X$701 VGND VPWR sg13g2_decap_8
X$702 VGND VPWR sg13g2_decap_8
X$703 VGND VPWR sg13g2_decap_8
X$704 VGND VPWR sg13g2_decap_8
X$705 VGND VPWR sg13g2_decap_8
X$706 VGND VPWR sg13g2_decap_8
X$707 VGND VPWR sg13g2_decap_8
X$708 VGND VPWR sg13g2_decap_8
X$713 VGND VPWR sg13g2_decap_8
X$714 VGND VPWR sg13g2_decap_8
X$715 VGND VPWR sg13g2_decap_8
X$716 VGND VPWR sg13g2_decap_8
X$721 VGND VPWR sg13g2_decap_8
X$722 VGND VPWR sg13g2_decap_8
X$723 VGND VPWR sg13g2_decap_8
X$724 VGND VPWR sg13g2_decap_8
X$725 VGND VPWR sg13g2_decap_8
X$726 VGND VPWR sg13g2_decap_8
X$727 VGND VPWR sg13g2_decap_8
X$728 VGND VPWR sg13g2_decap_8
X$729 VGND VPWR sg13g2_decap_8
X$730 VGND VPWR sg13g2_decap_8
X$731 VGND VPWR sg13g2_decap_8
X$732 VGND VPWR sg13g2_decap_8
X$733 VGND VPWR sg13g2_decap_8
X$734 VGND VPWR sg13g2_decap_8
X$735 VGND VPWR sg13g2_decap_8
X$736 VGND VPWR sg13g2_decap_8
X$737 VGND VPWR sg13g2_decap_8
X$738 VGND VPWR sg13g2_decap_8
X$739 VGND VPWR sg13g2_decap_8
X$740 VGND VPWR sg13g2_decap_8
X$745 VGND VPWR sg13g2_decap_8
X$746 VGND VPWR sg13g2_decap_8
X$747 VGND VPWR sg13g2_decap_8
X$748 VGND VPWR sg13g2_decap_8
X$749 VGND VPWR sg13g2_decap_8
X$750 VGND VPWR sg13g2_decap_8
X$751 VGND VPWR sg13g2_decap_8
X$752 VGND VPWR sg13g2_decap_8
X$757 VGND VPWR sg13g2_decap_8
X$758 VGND VPWR sg13g2_decap_8
X$759 VGND VPWR sg13g2_decap_8
X$760 VGND VPWR sg13g2_decap_8
X$765 VGND VPWR sg13g2_decap_8
X$766 VGND VPWR sg13g2_decap_8
X$767 VGND VPWR sg13g2_decap_8
X$768 VGND VPWR sg13g2_decap_8
X$769 VGND VPWR sg13g2_decap_8
X$770 VGND VPWR sg13g2_decap_8
X$771 VGND VPWR sg13g2_decap_8
X$772 VGND VPWR sg13g2_decap_8
X$773 VGND VPWR sg13g2_decap_8
X$774 VGND VPWR sg13g2_decap_8
X$775 VGND VPWR sg13g2_decap_8
X$776 VGND VPWR sg13g2_decap_8
X$777 VGND VPWR sg13g2_decap_8
X$778 VGND VPWR sg13g2_decap_8
X$779 VGND VPWR sg13g2_decap_8
X$780 VGND VPWR sg13g2_decap_8
X$781 VGND VPWR sg13g2_decap_8
X$782 VGND VPWR sg13g2_decap_8
X$783 VGND VPWR sg13g2_decap_8
X$784 VGND VPWR sg13g2_decap_8
X$785 VGND VPWR sg13g2_decap_8
X$786 VGND VPWR sg13g2_decap_8
X$787 VGND VPWR sg13g2_decap_8
X$788 VGND VPWR sg13g2_decap_8
X$789 VGND VPWR sg13g2_decap_8
X$790 VGND VPWR sg13g2_decap_8
X$791 VGND VPWR sg13g2_decap_8
X$792 VGND VPWR sg13g2_decap_8
X$793 VGND VPWR sg13g2_decap_8
X$794 VGND VPWR sg13g2_decap_8
X$795 VGND VPWR sg13g2_decap_8
X$796 VGND VPWR sg13g2_decap_8
X$797 VGND VPWR sg13g2_decap_8
X$798 VGND VPWR sg13g2_decap_8
X$799 VGND VPWR sg13g2_decap_8
X$800 VGND VPWR sg13g2_decap_8
X$801 VGND VPWR sg13g2_decap_8
X$802 VGND VPWR sg13g2_decap_8
X$803 VGND VPWR sg13g2_decap_8
X$804 VGND VPWR sg13g2_decap_8
X$805 VGND VPWR sg13g2_decap_8
X$806 VGND VPWR sg13g2_decap_8
X$811 VGND VPWR sg13g2_decap_8
X$812 VGND VPWR sg13g2_decap_8
X$813 VGND VPWR sg13g2_decap_8
X$814 VGND VPWR sg13g2_decap_8
X$819 VGND VPWR sg13g2_decap_8
X$820 VGND VPWR sg13g2_decap_8
X$821 VGND VPWR sg13g2_decap_8
X$822 VGND VPWR sg13g2_decap_8
X$823 VGND VPWR sg13g2_decap_8
X$824 VGND VPWR sg13g2_decap_8
X$825 VGND VPWR sg13g2_decap_8
X$826 VGND VPWR sg13g2_decap_8
X$827 VGND VPWR sg13g2_decap_8
X$828 VGND VPWR sg13g2_decap_8
X$829 VGND VPWR sg13g2_decap_8
X$830 VGND VPWR sg13g2_decap_8
X$831 VGND VPWR sg13g2_decap_8
X$832 VGND VPWR sg13g2_decap_8
X$833 VGND VPWR sg13g2_decap_8
X$834 VGND VPWR sg13g2_decap_8
X$835 VGND VPWR sg13g2_decap_8
X$836 VGND VPWR sg13g2_decap_8
X$837 VGND VPWR sg13g2_decap_8
X$838 VGND VPWR sg13g2_decap_8
X$839 VGND VPWR sg13g2_decap_8
X$840 VGND VPWR sg13g2_decap_8
X$841 VGND VPWR sg13g2_decap_8
X$842 VGND VPWR sg13g2_decap_8
X$843 VGND VPWR sg13g2_decap_8
X$844 VGND VPWR sg13g2_decap_8
X$845 VGND VPWR sg13g2_decap_8
X$846 VGND VPWR sg13g2_decap_8
X$847 VGND VPWR sg13g2_decap_8
X$848 VGND VPWR sg13g2_decap_8
X$849 VGND VPWR sg13g2_decap_8
X$850 VGND VPWR sg13g2_decap_8
X$851 VGND VPWR sg13g2_decap_8
X$852 VGND VPWR sg13g2_decap_8
X$853 VGND VPWR sg13g2_decap_8
X$854 VGND VPWR sg13g2_decap_8
X$855 VGND VPWR sg13g2_decap_8
X$856 VGND VPWR sg13g2_decap_8
X$857 VGND VPWR sg13g2_decap_8
X$858 VGND VPWR sg13g2_decap_8
X$863 VGND VPWR sg13g2_decap_8
X$864 VGND VPWR sg13g2_decap_8
X$865 VGND VPWR sg13g2_decap_8
X$866 VGND VPWR sg13g2_decap_8
X$871 VGND VPWR sg13g2_decap_8
X$872 VGND VPWR sg13g2_decap_8
X$873 VGND VPWR sg13g2_decap_8
X$874 VGND VPWR sg13g2_decap_8
X$875 VGND VPWR sg13g2_decap_8
X$876 VGND VPWR sg13g2_decap_8
X$877 VGND VPWR sg13g2_decap_8
X$878 VGND VPWR sg13g2_decap_8
X$879 VGND VPWR sg13g2_decap_8
X$880 VGND VPWR sg13g2_decap_8
X$881 VGND VPWR sg13g2_decap_8
X$882 VGND VPWR sg13g2_decap_8
X$883 VGND VPWR sg13g2_decap_8
X$884 VGND VPWR sg13g2_decap_8
X$885 VGND VPWR sg13g2_decap_8
X$886 VGND VPWR sg13g2_decap_8
X$887 VGND VPWR sg13g2_decap_8
X$888 VGND VPWR sg13g2_decap_8
X$889 VGND VPWR sg13g2_decap_8
X$890 VGND VPWR sg13g2_decap_8
X$895 VGND VPWR sg13g2_decap_8
X$896 VGND VPWR sg13g2_decap_8
X$897 VGND VPWR sg13g2_decap_8
X$898 VGND VPWR sg13g2_decap_8
X$899 VGND VPWR sg13g2_decap_8
X$900 VGND VPWR sg13g2_decap_8
X$901 VGND VPWR sg13g2_decap_8
X$902 VGND VPWR sg13g2_decap_8
X$907 VGND VPWR sg13g2_decap_8
X$908 VGND VPWR sg13g2_decap_8
X$909 VGND VPWR sg13g2_decap_8
X$910 VGND VPWR sg13g2_decap_8
X$915 VGND VPWR sg13g2_decap_8
X$916 VGND VPWR sg13g2_decap_8
X$917 VGND VPWR sg13g2_decap_8
X$918 VGND VPWR sg13g2_decap_8
X$919 VGND VPWR sg13g2_decap_8
X$920 VGND VPWR sg13g2_decap_8
X$921 VGND VPWR sg13g2_decap_8
X$922 VGND VPWR sg13g2_decap_8
X$923 VGND VPWR sg13g2_decap_8
X$924 VGND VPWR sg13g2_decap_8
X$925 VGND VPWR sg13g2_decap_8
X$926 VGND VPWR sg13g2_decap_8
X$927 VGND VPWR sg13g2_decap_8
X$928 VGND VPWR sg13g2_decap_8
X$929 VGND VPWR sg13g2_decap_8
X$930 VGND VPWR sg13g2_decap_8
X$931 VGND VPWR sg13g2_decap_8
X$932 VGND VPWR sg13g2_decap_8
X$933 VGND VPWR sg13g2_decap_8
X$934 VGND VPWR sg13g2_decap_8
X$935 VGND VPWR sg13g2_decap_8
X$936 VGND VPWR sg13g2_decap_8
X$937 VGND VPWR sg13g2_decap_8
X$938 VGND VPWR sg13g2_decap_8
X$939 VGND VPWR sg13g2_decap_8
X$940 VGND VPWR sg13g2_decap_8
X$941 VGND VPWR sg13g2_decap_8
X$942 VGND VPWR sg13g2_decap_8
X$943 VGND VPWR sg13g2_decap_8
X$944 VGND VPWR sg13g2_decap_8
X$945 VGND VPWR sg13g2_decap_8
X$946 VGND VPWR sg13g2_decap_8
X$947 VGND VPWR sg13g2_decap_8
X$948 VGND VPWR sg13g2_decap_8
X$949 VGND VPWR sg13g2_decap_8
X$950 VGND VPWR sg13g2_decap_8
X$951 VGND VPWR sg13g2_decap_8
X$952 VGND VPWR sg13g2_decap_8
X$953 VGND VPWR sg13g2_decap_8
X$954 VGND VPWR sg13g2_decap_8
X$955 VGND VPWR sg13g2_decap_8
X$956 VGND VPWR sg13g2_decap_8
X$961 VGND VPWR sg13g2_decap_8
X$962 VGND VPWR sg13g2_decap_8
X$963 VGND VPWR sg13g2_decap_8
X$964 VGND VPWR sg13g2_decap_8
X$969 VGND VPWR sg13g2_decap_8
X$970 VGND VPWR sg13g2_decap_8
X$971 VGND VPWR sg13g2_decap_8
X$972 VGND VPWR sg13g2_decap_8
X$973 VGND VPWR sg13g2_decap_8
X$974 VGND VPWR sg13g2_decap_8
X$975 VGND VPWR sg13g2_decap_8
X$976 VGND VPWR sg13g2_decap_8
X$977 VGND VPWR sg13g2_decap_8
X$978 VGND VPWR sg13g2_decap_8
X$979 VGND VPWR sg13g2_decap_8
X$980 VGND VPWR sg13g2_decap_8
X$981 VGND VPWR sg13g2_decap_8
X$982 VGND VPWR sg13g2_decap_8
X$983 VGND VPWR sg13g2_decap_8
X$984 VGND VPWR sg13g2_decap_8
X$985 VGND VPWR sg13g2_decap_8
X$986 VGND VPWR sg13g2_decap_8
X$987 VGND VPWR sg13g2_decap_8
X$988 VGND VPWR sg13g2_decap_8
X$989 VGND VPWR sg13g2_decap_8
X$990 VGND VPWR sg13g2_decap_8
X$991 VGND VPWR sg13g2_decap_8
X$992 VGND VPWR sg13g2_decap_8
X$993 VGND VPWR sg13g2_decap_8
X$994 VGND VPWR sg13g2_decap_8
X$995 VGND VPWR sg13g2_decap_8
X$996 VGND VPWR sg13g2_decap_8
X$997 VGND VPWR sg13g2_decap_8
X$998 VGND VPWR sg13g2_decap_8
X$999 VGND VPWR sg13g2_decap_8
X$1000 VGND VPWR sg13g2_decap_8
X$1001 VGND VPWR sg13g2_decap_8
X$1002 VGND VPWR sg13g2_decap_8
X$1003 VGND VPWR sg13g2_decap_8
X$1004 VGND VPWR sg13g2_decap_8
X$1005 VGND VPWR sg13g2_decap_8
X$1006 VGND VPWR sg13g2_decap_8
X$1007 VGND VPWR sg13g2_decap_8
X$1008 VGND VPWR sg13g2_decap_8
X$1013 VGND VPWR sg13g2_decap_8
X$1014 VGND VPWR sg13g2_decap_8
X$1015 VGND VPWR sg13g2_decap_8
X$1016 VGND VPWR sg13g2_decap_8
X$1021 VGND VPWR sg13g2_decap_8
X$1022 VGND VPWR sg13g2_decap_8
X$1023 VGND VPWR sg13g2_decap_8
X$1024 VGND VPWR sg13g2_decap_8
X$1025 VGND VPWR sg13g2_decap_8
X$1026 VGND VPWR sg13g2_decap_8
X$1027 VGND VPWR sg13g2_decap_8
X$1028 VGND VPWR sg13g2_decap_8
X$1029 VGND VPWR sg13g2_decap_8
X$1030 VGND VPWR sg13g2_decap_8
X$1031 VGND VPWR sg13g2_decap_8
X$1032 VGND VPWR sg13g2_decap_8
X$1033 VGND VPWR sg13g2_decap_8
X$1034 VGND VPWR sg13g2_decap_8
X$1035 VGND VPWR sg13g2_decap_8
X$1036 VGND VPWR sg13g2_decap_8
X$1037 VGND VPWR sg13g2_decap_8
X$1038 VGND VPWR sg13g2_decap_8
X$1039 VGND VPWR sg13g2_decap_8
X$1040 VGND VPWR sg13g2_decap_8
X$1045 VGND VPWR sg13g2_decap_8
X$1046 VGND VPWR sg13g2_decap_8
X$1047 VGND VPWR sg13g2_decap_8
X$1048 VGND VPWR sg13g2_decap_8
X$1049 VGND VPWR sg13g2_decap_8
X$1050 VGND VPWR sg13g2_decap_8
X$1051 VGND VPWR sg13g2_decap_8
X$1052 VGND VPWR sg13g2_decap_8
X$1057 VGND VPWR sg13g2_decap_8
X$1058 VGND VPWR sg13g2_decap_8
X$1059 VGND VPWR sg13g2_decap_8
X$1060 VGND VPWR sg13g2_decap_8
X$1065 VGND VPWR sg13g2_decap_8
X$1066 VGND VPWR sg13g2_decap_8
X$1067 VGND VPWR sg13g2_decap_8
X$1068 VGND VPWR sg13g2_decap_8
X$1069 VGND VPWR sg13g2_decap_8
X$1070 VGND VPWR sg13g2_decap_8
X$1071 VGND VPWR sg13g2_decap_8
X$1072 VGND VPWR sg13g2_decap_8
X$1073 VGND VPWR sg13g2_decap_8
X$1074 VGND VPWR sg13g2_decap_8
X$1075 VGND VPWR sg13g2_decap_8
X$1076 VGND VPWR sg13g2_decap_8
X$1077 VGND VPWR sg13g2_decap_8
X$1078 VGND VPWR sg13g2_decap_8
X$1079 VGND VPWR sg13g2_decap_8
X$1080 VGND VPWR sg13g2_decap_8
X$1081 VGND VPWR sg13g2_decap_8
X$1082 VGND VPWR sg13g2_decap_8
X$1083 VGND VPWR sg13g2_decap_8
X$1084 VGND VPWR sg13g2_decap_8
X$1085 VGND VPWR sg13g2_decap_8
X$1086 VGND VPWR sg13g2_decap_8
X$1087 VGND VPWR sg13g2_decap_8
X$1088 VGND VPWR sg13g2_decap_8
X$1089 VGND VPWR sg13g2_decap_8
X$1090 VGND VPWR sg13g2_decap_8
X$1091 VGND VPWR sg13g2_decap_8
X$1092 VGND VPWR sg13g2_decap_8
X$1093 VGND VPWR sg13g2_decap_8
X$1094 VGND VPWR sg13g2_decap_8
X$1095 VGND VPWR sg13g2_decap_8
X$1096 VGND VPWR sg13g2_decap_8
X$1097 VGND VPWR sg13g2_decap_8
X$1098 VGND VPWR sg13g2_decap_8
X$1099 VGND VPWR sg13g2_decap_8
X$1100 VGND VPWR sg13g2_decap_8
X$1101 VGND VPWR sg13g2_decap_8
X$1102 VGND VPWR sg13g2_decap_8
X$1103 VGND VPWR sg13g2_decap_8
X$1104 VGND VPWR sg13g2_decap_8
X$1105 VGND VPWR sg13g2_decap_8
X$1106 VGND VPWR sg13g2_decap_8
X$1111 VGND VPWR sg13g2_decap_8
X$1112 VGND VPWR sg13g2_decap_8
X$1113 VGND VPWR sg13g2_decap_8
X$1114 VGND VPWR sg13g2_decap_8
X$1119 VGND VPWR sg13g2_decap_8
X$1120 VGND VPWR sg13g2_decap_8
X$1121 VGND VPWR sg13g2_decap_8
X$1122 VGND VPWR sg13g2_decap_8
X$1123 VGND VPWR sg13g2_decap_8
X$1124 VGND VPWR sg13g2_decap_8
X$1125 VGND VPWR sg13g2_decap_8
X$1126 VGND VPWR sg13g2_decap_8
X$1127 VGND VPWR sg13g2_decap_8
X$1128 VGND VPWR sg13g2_decap_8
X$1129 VGND VPWR sg13g2_decap_8
X$1130 VGND VPWR sg13g2_decap_8
X$1131 VGND VPWR sg13g2_decap_8
X$1132 VGND VPWR sg13g2_decap_8
X$1133 VGND VPWR sg13g2_decap_8
X$1134 VGND VPWR sg13g2_decap_8
X$1135 VGND VPWR sg13g2_decap_8
X$1136 VGND VPWR sg13g2_decap_8
X$1137 VGND VPWR sg13g2_decap_8
X$1138 VGND VPWR sg13g2_decap_8
X$1139 VGND VPWR sg13g2_decap_8
X$1140 VGND VPWR sg13g2_decap_8
X$1141 VGND VPWR sg13g2_decap_8
X$1142 VGND VPWR sg13g2_decap_8
X$1143 VGND VPWR sg13g2_decap_8
X$1144 VGND VPWR sg13g2_decap_8
X$1145 VGND VPWR sg13g2_decap_8
X$1146 VGND VPWR sg13g2_decap_8
X$1147 VGND VPWR sg13g2_decap_8
X$1148 VGND VPWR sg13g2_decap_8
X$1149 VGND VPWR sg13g2_decap_8
X$1150 VGND VPWR sg13g2_decap_8
X$1151 VGND VPWR sg13g2_decap_8
X$1152 VGND VPWR sg13g2_decap_8
X$1153 VGND VPWR sg13g2_decap_8
X$1154 VGND VPWR sg13g2_decap_8
X$1155 VGND VPWR sg13g2_decap_8
X$1156 VGND VPWR sg13g2_decap_8
X$1157 VGND VPWR sg13g2_decap_8
X$1158 VGND VPWR sg13g2_decap_8